082_3TY0_A
frProtoss 02171720153D 1   1.00000     0.00000     0
Protoss
 56 61  0  0  0  0            999 V2000
   18.2580    5.0890   15.2170 C   0  0  0  0  0  0  0  0  0  0  0  0
   19.0460    5.2010   14.0880 C   0  0  0  0  0  0  0  0  0  0  0  0
   18.5860    8.1050    8.5420 C   0  0  0  0  0  0  0  0  0  0  0  0
   12.4090    3.2260   13.0600 C   0  0  0  0  0  0  0  0  0  0  0  0
   17.7500    9.1820    8.7610 C   0  0  0  0  0  0  0  0  0  0  0  0
   18.2610    6.8550    9.0270 C   0  0  0  0  0  0  0  0  0  0  0  0
   16.8800    5.0650   15.1180 C   0  0  0  0  0  0  0  0  0  0  0  0
   18.4940    5.2950   12.8240 C   0  0  0  0  0  0  0  0  0  0  0  0
   11.2010    2.5870   13.2610 C   0  0  0  0  0  0  0  0  0  0  0  0
   16.2580    7.7610    9.9410 C   0  0  0  0  0  0  0  0  0  0  0  0
   10.8540    3.6360   15.4070 C   0  0  0  0  0  0  0  0  0  0  0  0
   12.8410    4.0930   14.0540 C   0  0  0  0  0  0  0  0  0  0  0  0
   16.5650    9.0210    9.4590 C   0  0  0  0  0  0  0  0  0  0  0  0
   17.0910    6.6770    9.7360 C   0  0  0  0  0  0  0  0  0  0  0  0
   16.3460    5.1650   13.8520 C   0  0  0  0  0  0  0  0  0  0  0  0
   17.1250    5.2750   12.7390 C   0  0  0  0  0  0  0  0  0  0  0  0
   12.0580    4.2570   15.1760 C   0  0  0  0  0  0  0  0  0  0  0  0
   10.4470    2.7890   14.3970 C   0  0  0  0  0  0  0  0  0  0  0  0
   13.9580    4.9480   14.2790 C   0  0  0  0  0  0  0  0  0  0  0  0
   14.5640   10.0290    8.6890 C   0  0  0  0  0  0  0  0  0  0  0  0
   15.9940   11.4750    7.9960 C   0  0  0  0  0  0  0  0  0  0  0  0
   14.9590    5.2960   12.0340 C   0  0  0  0  0  0  0  0  0  0  0  0
   15.5920   10.1370    9.7710 C   0  0  1  0  0  0  0  0  0  0  0  0
   15.0610   10.2080   11.1760 C   0  0  0  0  0  0  0  0  0  0  0  0
    8.8540    2.1210   15.8730 C   0  0  0  0  0  0  0  0  0  0  0  0
   16.7400    5.3240   10.2570 C   0  0  0  0  0  0  0  0  0  0  0  0
   13.8610    5.5710   15.4600 N   0  0  0  0  0  0  0  0  0  0  0  0
   14.9310   10.7610    7.6490 N   0  0  0  0  0  0  0  0  0  0  0  0
   15.0220    5.1570   13.4120 N   0  0  0  0  0  0  0  0  0  0  0  0
   16.2810    5.3560   11.6260 N   0  0  0  0  0  0  0  0  0  0  0  0
   13.6350    9.2360    8.7200 O   0  0  0  0  0  0  0  0  0  0  0  0
   16.5390   12.3330    7.3210 O   0  0  0  0  0  0  0  0  0  0  0  0
   13.9640    5.3700   11.3280 O   0  0  0  0  0  0  0  0  0  0  0  0
   12.6700    5.1290   16.0230 O   0  0  0  0  0  0  0  0  0  0  0  0
   16.2970   11.2730    9.3090 O   0  0  0  0  0  0  0  0  0  0  0  0
    9.2430    2.1080   14.5010 O   0  0  0  0  0  0  0  0  0  0  0  0
   18.6899    5.0245   16.1166 H   0  0  0  0  0  0  0  0  0  0  0  0
   20.0409    5.2144   14.1875 H   0  0  0  0  0  0  0  0  0  0  0  0
   19.4341    8.2322    8.0276 H   0  0  0  0  0  0  0  0  0  0  0  0
   12.9495    3.0705   12.2332 H   0  0  0  0  0  0  0  0  0  0  0  0
   18.0022   10.0849    8.4129 H   0  0  0  0  0  0  0  0  0  0  0  0
   18.8719    6.0800    8.8651 H   0  0  0  0  0  0  0  0  0  0  0  0
   16.2981    4.9791   15.9267 H   0  0  0  0  0  0  0  0  0  0  0  0
   19.0670    5.3740   12.0083 H   0  0  0  0  0  0  0  0  0  0  0  0
   10.8630    1.9583   12.5606 H   0  0  0  0  0  0  0  0  0  0  0  0
   15.4087    7.6306   10.4526 H   0  0  0  0  0  0  0  0  0  0  0  0
   10.3178    3.7856   16.2377 H   0  0  0  0  0  0  0  0  0  0  0  0
   14.4325   10.9817   11.2561 H   0  0  0  0  0  0  0  0  0  0  0  0
   14.5759    9.3607   11.3922 H   0  0  0  0  0  0  0  0  0  0  0  0
   15.8215   10.3288   11.8140 H   0  0  0  0  0  0  0  0  0  0  0  0
    7.9862    1.6354   15.9780 H   0  0  0  0  0  0  0  0  0  0  0  0
    9.5570    1.6701   16.4231 H   0  0  0  0  0  0  0  0  0  0  0  0
    8.7461    3.0666   16.1799 H   0  0  0  0  0  0  0  0  0  0  0  0
   17.5507    4.7409   10.2049 H   0  0  0  0  0  0  0  0  0  0  0  0
   16.0153    4.9392    9.6855 H   0  0  0  0  0  0  0  0  0  0  0  0
   14.4836   10.7737    6.7548 H   0  0  0  0  0  0  0  0  0  0  0  0
  1  2  2  0  0  0  0
  1  7  1  0  0  0  0
  2  8  1  0  0  0  0
  3  5  2  0  0  0  0
  3  6  1  0  0  0  0
  4  9  2  0  0  0  0
  4 12  1  0  0  0  0
  5 13  1  0  0  0  0
  6 14  2  0  0  0  0
  7 15  2  0  0  0  0
  8 16  2  0  0  0  0
  9 18  1  0  0  0  0
 10 13  2  0  0  0  0
 10 14  1  0  0  0  0
 11 17  1  0  0  0  0
 11 18  2  0  0  0  0
 12 17  2  0  0  0  0
 12 19  1  0  0  0  0
 13 23  1  0  0  0  0
 14 26  1  0  0  0  0
 15 16  1  0  0  0  0
 15 29  1  0  0  0  0
 16 30  1  0  0  0  0
 17 34  1  0  0  0  0
 18 36  1  0  0  0  0
 19 27  2  0  0  0  0
 19 29  1  0  0  0  0
 20 23  1  0  0  0  0
 20 28  1  0  0  0  0
 20 31  2  0  0  0  0
 21 28  1  0  0  0  0
 21 32  2  0  0  0  0
 21 35  1  0  0  0  0
 22 29  1  0  0  0  0
 22 30  1  0  0  0  0
 22 33  2  0  0  0  0
 23 24  1  0  0  0  0
 23 35  1  0  0  0  0
 25 36  1  0  0  0  0
 26 30  1  0  0  0  0
 27 34  1  0  0  0  0
  1 37  1  0  0  0  0
  2 38  1  0  0  0  0
  3 39  1  0  0  0  0
  4 40  1  0  0  0  0
  5 41  1  0  0  0  0
  6 42  1  0  0  0  0
  7 43  1  0  0  0  0
  8 44  1  0  0  0  0
  9 45  1  0  0  0  0
 10 46  1  0  0  0  0
 11 47  1  0  0  0  0
 24 48  1  0  0  0  0
 24 49  1  0  0  0  0
 24 50  1  0  0  0  0
 25 51  1  0  0  0  0
 25 52  1  0  0  0  0
 25 53  1  0  0  0  0
 26 54  1  0  0  0  0
 26 55  1  0  0  0  0
 28 56  1  0  0  0  0
M  END

